/*--------------------------------*- C++ -*----------------------------------*\
| =========                 |                                                 |
| \\      /  F ield         | OpenFOAM: The Open Source CFD Toolbox           |
|  \\    /   O peration     | Version:  2.4.0                                 |
|   \\  /    A nd           | Web:      www.OpenFOAM.org                      |
|    \\/     M anipulation  |                                                 |
\*---------------------------------------------------------------------------*/
FoamFile
{
    version     2.0;
    format      ascii;
    class       volScalarField;
    location    "0";
    object      epsilon;
}
// * * * * * * * * * * * * * * * * * * * * * * * * * * * * * * * * * * * * * //

dimensions      [0 2 -3 0 0 0 0];

internalField   uniform var0;

boundaryField
{
    
    inlet
    {
        type            fixedValue;
        value           inletValueInlet;
    }
    
    suction
    {
        type            inletOutlet;
        inletValue      inletValueSuction;
        value           inletValueSuction;
    }

    outlet
    {
        type            inletOutlet;
        inletValue      $internalField;
        value           $internalField;
    }

    wall
    {
        type            epsilonWallFunction;
        value           $internalField;
    }
    
    wedgeZ0
    {
        type            wedge;
    }
    wedgeZE
    {
        type            wedge;
    }
    
    defaultFaces
    {
        type            empty;
    }
}


// ************************************************************************* //
