/*--------------------------------*- C++ -*----------------------------------*\
| =========                 |                                                 |
| \\      /  F ield         | OpenFOAM: The Open Source CFD Toolbox           |
|  \\    /   O peration     | Version:  3.0.1                                 |
|   \\  /    A nd           | Web:      www.OpenFOAM.org                      |
|    \\/     M anipulation  |                                                 |
\*---------------------------------------------------------------------------*/
FoamFile
{
    version     2.0;
    format      ascii;
    class       volScalarField;
    object      k;
}
// * * * * * * * * * * * * * * * * * * * * * * * * * * * * * * * * * * * * * //

dimensions      [0 2 -2 0 0 0 0];

internalField   uniform var0;

boundaryField
{
    inlet
    {
        type            fixedValue;
        value           inletValueInlet;
    }

    suction
    {
        type            inletOutlet;
        inletValue      inletValueSuction;
        value           inletValueSuction;
    }
    
    outlet
    {
        type            inletOutlet;
        inletValue      $internalField;
        value           $internalField;
    }

    wall
    {
        type            kLowReWallFunction;
        value           $internalField;
    }
    
    wedgeZ0
    {
        type            wedge;
    }
    wedgeZE
    {
        type            wedge;
    }
    
    defaultFaces
    {
        type            empty;
    }

}


// ************************************************************************* //
