/*--------------------------------*- C++ -*----------------------------------*\
| =========                 |                                                 |
| \\      /  F ield         | OpenFOAM: The Open Source CFD Toolbox           |
|  \\    /   O peration     | Version:  2.3.0                                 |
|   \\  /    A nd           | Web:      www.OpenFOAM.org                      |
|    \\/     M anipulation  |                                                 |
\*---------------------------------------------------------------------------*/
FoamFile
{
    version     2.0;
    format      ascii;
    class       volScalarField;
    location    "0";
    object      p;
}
// * * * * * * * * * * * * * * * * * * * * * * * * * * * * * * * * * * * * * //

dimensions      [0 2 -2 0 0 0 0];

internalField   uniform 101.325;

boundaryField
{
    inlet
    {
        type            zeroGradient;
    }

    suction
    {
        type            totalPressure;
        p0              uniform pSuc;
        value           $internalField;
    }
    
    outlet
    {
        type            fixedValue;
        value           $internalField;
    }

    wall
    {
        type            zeroGradient;
    }

    wedgeZ0
    {
        type            wedge;
    }

    wedgeZE
    {
        type            wedge;
    }
    
    defaultFaces
    {
        type            empty;
    }
}

// ************************************************************************* //
