/*--------------------------------*- C++ -*----------------------------------*\
| =========                 |                                                 |
| \\      /  F ield         | OpenFOAM: The Open Source CFD Toolbox           |
|  \\    /   O peration     | Version:  2.1.1                                 |
|   \\  /    A nd           | Web:      www.OpenFOAM.org                      |
|    \\/     M anipulation  |                                                 |
\*---------------------------------------------------------------------------*/
FoamFile
{
    version     2.0;
    format      ascii;
    class       volVectorField;
    location    "0";
    object      U;
}
// * * * * * * * * * * * * * * * * * * * * * * * * * * * * * * * * * * * * * //

dimensions      [0 1 -1 0 0 0 0];

internalField   uniform (uI 0 0);

boundaryField
{
    inlet
    {
        type            fixedValue;
        value           uniform (uI 0 0);
    }
    
    suction
    {
        type            pressureInletOutletVelocity;
        value           $internalField;
    }

    outlet
    {
        type            pressureInletOutletVelocity;
        value           $internalField;
    }

    wall
    {
        type            noSlip;
    }
    
    wedgeZ0
    {
        type            wedge;
    }

    wedgeZE
    {
        type            wedge;
    }

    defaultFaces
    {
        type            empty;
    }
}


// ************************************************************************* //
